within OpenIPSL.Tests.Banks;
package PSSE "Set of SMIB systems to test controlled shunt device models from PSS/E"
extends Modelica.Icons.ExamplesPackage;

end PSSE;
