within iPSL.Electrical.Loads.PSSE;
model Load_switch "PSS/E Load"
  extends iPSL.Electrical.Loads.PSSE.BaseClasses.baseLoad;
  parameter Real t1 "Time of switching on";
  parameter Real t2 "Time of switching off";
equation
  if time >= t1 and time < t2 then
    kI*S_I.re*v + S_Y.re*v^2 + kP*S_P.re = p.vr*p.ir + p.vi*p.ii;
    kI*S_I.im*v + S_Y.im*v^2 + kP*S_P.im = (-p.vr*p.ii) + p.vi*p.ir;
  else
    p.ir = 0;
    p.ii = 0;
  end if;
  annotation (
    Diagram(coordinateSystem(
        extent={{-100,-100},{100,100}},
        preserveAspectRatio=false,
        initialScale=0.05), graphics),
    Icon(coordinateSystem(
        extent={{-100,-100},{100,100}},
        preserveAspectRatio=false,
        initialScale=0.05)),
    Documentation(info="<html>
<table cellspacing=\"1\" cellpadding=\"1\" border=\"1\">
<tr>
<td><p>Reference</p></td>
<td>PSS/E Manual</td>
</tr>
<tr>
<td><p>Last update</p></td>
<td>Unknown</td>
</tr>
<tr>
<td><p>Author</p></td>
<td><p>Mengjia Zhang,SmarTS Lab, KTH Royal Institute of Technology</p></td>
</tr>
<tr>
<td><p>Contact</p></td>
<td><p><a href=\"mailto:luigiv@kth.se\">luigiv@kth.se</a></p></td>
</tr>
</table>
<p><br><span style=\"font-family: MS Shell Dlg 2;\">&LT;iPSL: iTesla Power System Library&GT;</span></p>
<p><span style=\"font-family: MS Shell Dlg 2;\">Copyright 2015 RTE (France), AIA (Spain), KTH (Sweden) and DTU (Denmark)</span></p>
<ul>
<li><span style=\"font-family: MS Shell Dlg 2;\">RTE: http://www.rte-france.com/ </span></li>
<li><span style=\"font-family: MS Shell Dlg 2;\">AIA: http://www.aia.es/en/energy/</span></li>
<li><span style=\"font-family: MS Shell Dlg 2;\">KTH: https://www.kth.se/en</span></li>
<li><span style=\"font-family: MS Shell Dlg 2;\">DTU:http://www.dtu.dk/english</span></li>
</ul>
<p><span style=\"font-family: MS Shell Dlg 2;\">The authors can be contacted by email: info at itesla-ipsl dot org</span></p>
<p><span style=\"font-family: MS Shell Dlg 2;\">This package is part of the iTesla Power System Library (&QUOT;iPSL&QUOT;) .</span></p>
<p><span style=\"font-family: MS Shell Dlg 2;\">The iPSL is free software: you can redistribute it and/or modify it under the terms of the GNU Lesser General Public License as published by the Free Software Foundation, either version 3 of the License, or (at your option) any later version.</span></p>
<p><span style=\"font-family: MS Shell Dlg 2;\">The iPSL is distributed in the hope that it will be useful, but WITHOUT ANY WARRANTY; without even the implied warranty of MERCHANTABILITY or FITNESS FOR A PARTICULAR PURPOSE. See the GNU Lesser General Public License for more details.</span></p>
<p><span style=\"font-family: MS Shell Dlg 2;\">You should have received a copy of the GNU Lesser General Public License along with the iPSL. If not, see &LT;http://www.gnu.org/licenses/&GT;.</span></p>
</html>"));
end Load_switch;
