within iPSL.Electrical.Loads.PSSE;
model Load_switch "PSS/E Load"
  extends iPSL.Electrical.Loads.PSSE.BaseClasses.baseLoad;
  parameter Real t1 "Time of switching on";
  parameter Real t2 "Time of switching off";
equation
  if time >= t1 and time < t2 then
    kI*S_I.re*v + S_Y.re*v^2 + kP*S_P.re = p.vr*p.ir + p.vi*p.ii;
    kI*S_I.im*v + S_Y.im*v^2 + kP*S_P.im = (-p.vr*p.ii) + p.vi*p.ir;
  else
    p.ir = 0;
    p.ii = 0;
  end if;
  annotation (
    Diagram(coordinateSystem(
        extent={{-100,-100},{100,100}},
        preserveAspectRatio=false,
        initialScale=0.05), graphics),
    Icon(coordinateSystem(
        extent={{-100,-100},{100,100}},
        preserveAspectRatio=false,
        initialScale=0.05)),
    Documentation(info="<html>
<table cellspacing=\"1\" cellpadding=\"1\" border=\"1\">
<tr>
<td><p>Reference</p></td>
<td>PSS/E Manual</td>
</tr>
<tr>
<td><p>Last update</p></td>
<td>Unknown</td>
</tr>
<tr>
<td><p>Author</p></td>
<td><p>Mengjia Zhang,SmarTS Lab, KTH Royal Institute of Technology</p></td>
</tr>
<tr>
<td><p>Contact</p></td>
<td><p><a href=\"mailto:luigiv@kth.se\">luigiv@kth.se</a></p></td>
</tr>
</table>
</html>", revisions="<!--DISCLAIMER-->
<html>
<p>Copyright 2015 RTE (France), SmarTS Lab (Sweden), AIA (Spain) and DTU (Denmark)</p>
<p>​- ​RTE: http://www.rte-france.com/</p>
<p>- SmarTS Lab, research group at KTH: https://www.kth.se/en</p>
<p>​- ​AIA: http://www.aia.es/en/energy/</p>
<p>​- ​DTU: http://www.dtu.dk/english</p>
<p>The authors can be contacted by email: info@itesla-ipsl.org </p>
<p>​</p>
<p>​​This Source Code Form is subject to the terms of the Mozilla Public License, v. 2.0. </p>
<p>If a copy of the MPL was not distributed with this file, You can obtain one at http://mozilla.org/MPL/2.0/.</p>
</html>"));
end Load_switch;
