within iPSL.Electrical.Branches.PSSE;
model phase_shift
  constant Real pi=Modelica.Constants.pi;
  iPSL.Connectors.PwPin p annotation (Placement(transformation(extent={{-100,0},{-80,20}})));
  iPSL.Connectors.PwPin n annotation (Placement(transformation(extent={{78,0},{98,20}})));
  parameter Real phase=150 "Phase shift (deg.)";
protected
  parameter Real A=(-phase*pi/180) + 0.5*pi;
equation
  [p.ir; p.ii] = -[sin(A), cos(A); -cos(A), sin(A)]*[n.ir; n.ii];
  [p.vr; p.vi] = [sin(A), cos(A); -cos(A), sin(A)]*[n.vr; n.vi];
  annotation (Diagram(coordinateSystem(preserveAspectRatio=true, extent={{-100,-100},{100,100}}), graphics), Documentation(info="<html>
<table cellspacing=\"1\" cellpadding=\"1\" border=\"1\">
<tr>
<td><p>Reference</p></td>
<td>PSS/E Manual</td>
</tr>
<tr>
<td><p>Last update</p></td>
<td>Unknown</td>
</tr>
<tr>
<td><p>Author</p></td>
<td><p>Mengjia Zhang,SmarTS Lab, KTH Royal Institute of Technology</p></td>
</tr>
<tr>
<td><p>Contact</p></td>
<td><p><a href=\"mailto:luigiv@kth.se\">luigiv@kth.se</a></p></td>
</tr>
</table>
</html>", revisions="<html>
<!--DISCLAIMER-->
<p>Copyright 2015-2016 RTE (France), SmarTS Lab (Sweden), AIA (Spain) and DTU (Denmark)</p>
<ul>
<li>RTE: <a href=\"http://www.rte-france.com\">http://www.rte-france.com</a></li>
<li>SmarTS Lab, research group at KTH: <a href=\"https://www.kth.se/en\">https://www.kth.se/en</a></li>
<li>AIA: <a href=\"http://www.aia.es/en/energy\"> http://www.aia.es/en/energy</a></li>
<li>DTU: <a href=\"http://www.dtu.dk/english\"> http://www.dtu.dk/english</a></li>
</ul>
<p>The authors can be contacted by email: <a href=\"mailto:info@itesla-ipsl.org\">info@itesla-ipsl.org</a></p>

<p>This Source Code Form is subject to the terms of the Mozilla Public License, v. 2.0. </p>
<p>If a copy of the MPL was not distributed with this file, You can obtain one at <a href=\"http://mozilla.org/MPL/2.0/\"> http://mozilla.org/MPL/2.0</a>.</p>
</html>"));
end phase_shift;

